<routes>
		<vType id="genericvehicle" accel="0.8" decel="4.5" sigma="0.5" length="5" minGap="2.5" maxSpeed="30.67" guiShape="passenger"/>
		<vType id="slowvehicle" accel="0.5" decel="4.5" sigma="0.5" length="5" minGap="2.5" maxSpeed="1.00" guiShape="passenger"/>        

		<route id="right" edges="edge1to0 edge0to3 edge3to7" />
		<route id="left" edges="edge7to3 edge3to0 edge0to1" />
		<route id="down1" edges="edge2to0 edge0to4" />	
		<route id="down2" edges="edge5to3 edge3to6" />
		<route id="up1" edges="edge4to0 edge0to2" />
		<route id="up2" edges="edge6to3 edge3to5" /> 
    <vehicle id="down1_0" type="genericvehicle" route="down1" depart="0" color="1,0,0"/>
    <vehicle id="up1_1" type="genericvehicle" route="up1" depart="1" color="1,0,0"/>
    <vehicle id="down2_2" type="genericvehicle" route="down2" depart="2" />
    <vehicle id="up2_3" type="genericvehicle" route="up2" depart="3" />
    <vehicle id="right_4" type="genericvehicle" route="right" depart="4" />
    <vehicle id="left_5" type="genericvehicle" route="left" depart="5" />
    <vehicle id="left_6" type="genericvehicle" route="left" depart="6" />
    <vehicle id="right_7" type="genericvehicle" route="right" depart="7" />
    <vehicle id="down1_8" type="genericvehicle" route="down1" depart="8" color="1,0,0"/>
    <vehicle id="up1_9" type="genericvehicle" route="up1" depart="9" color="1,0,0"/>
    <vehicle id="down2_10" type="genericvehicle" route="down2" depart="10" />
    <vehicle id="up2_11" type="genericvehicle" route="up2" depart="11" />
    <vehicle id="right_12" type="genericvehicle" route="right" depart="12" />
    <vehicle id="left_13" type="genericvehicle" route="left" depart="13" />
    <vehicle id="left_14" type="genericvehicle" route="left" depart="14" />
    <vehicle id="right_15" type="genericvehicle" route="right" depart="15" />
    <vehicle id="down1_16" type="genericvehicle" route="down1" depart="16" color="1,0,0"/>
    <vehicle id="up1_17" type="genericvehicle" route="up1" depart="17" color="1,0,0"/>
    <vehicle id="down2_18" type="genericvehicle" route="down2" depart="18" />
    <vehicle id="up2_19" type="genericvehicle" route="up2" depart="19" />
    <vehicle id="right_20" type="genericvehicle" route="right" depart="20" />
    <vehicle id="left_21" type="genericvehicle" route="left" depart="21" />
    <vehicle id="left_22" type="genericvehicle" route="left" depart="22" />
    <vehicle id="right_23" type="genericvehicle" route="right" depart="23" />
    <vehicle id="down1_24" type="genericvehicle" route="down1" depart="24" color="1,0,0"/>
    <vehicle id="up1_25" type="genericvehicle" route="up1" depart="25" color="1,0,0"/>
    <vehicle id="down2_26" type="genericvehicle" route="down2" depart="26" />
    <vehicle id="up2_27" type="genericvehicle" route="up2" depart="27" />
    <vehicle id="right_28" type="genericvehicle" route="right" depart="28" />
    <vehicle id="left_29" type="genericvehicle" route="left" depart="29" />
    <vehicle id="left_30" type="genericvehicle" route="left" depart="30" />
    <vehicle id="right_31" type="genericvehicle" route="right" depart="31" />
    <vehicle id="down1_32" type="genericvehicle" route="down1" depart="32" color="1,0,0"/>
    <vehicle id="up1_33" type="genericvehicle" route="up1" depart="33" color="1,0,0"/>
    <vehicle id="down2_34" type="genericvehicle" route="down2" depart="34" />
    <vehicle id="up2_35" type="genericvehicle" route="up2" depart="35" />
    <vehicle id="right_36" type="genericvehicle" route="right" depart="36" />
    <vehicle id="left_37" type="genericvehicle" route="left" depart="37" />
    <vehicle id="left_38" type="genericvehicle" route="left" depart="38" />
    <vehicle id="right_39" type="genericvehicle" route="right" depart="39" />
    <vehicle id="down1_40" type="genericvehicle" route="down1" depart="40" color="1,0,0"/>
    <vehicle id="up1_41" type="genericvehicle" route="up1" depart="41" color="1,0,0"/>
    <vehicle id="down2_42" type="genericvehicle" route="down2" depart="42" />
    <vehicle id="up2_43" type="genericvehicle" route="up2" depart="43" />
    <vehicle id="right_44" type="genericvehicle" route="right" depart="44" />
    <vehicle id="left_45" type="genericvehicle" route="left" depart="45" />
    <vehicle id="left_46" type="genericvehicle" route="left" depart="46" />
    <vehicle id="right_47" type="genericvehicle" route="right" depart="47" />
    <vehicle id="down1_48" type="genericvehicle" route="down1" depart="48" color="1,0,0"/>
    <vehicle id="up1_49" type="genericvehicle" route="up1" depart="49" color="1,0,0"/>
    <vehicle id="down2_50" type="genericvehicle" route="down2" depart="50" />
    <vehicle id="up2_51" type="genericvehicle" route="up2" depart="51" />
    <vehicle id="right_52" type="genericvehicle" route="right" depart="52" />
    <vehicle id="left_53" type="genericvehicle" route="left" depart="53" />
    <vehicle id="left_54" type="genericvehicle" route="left" depart="54" />
    <vehicle id="right_55" type="genericvehicle" route="right" depart="55" />
    <vehicle id="down1_56" type="genericvehicle" route="down1" depart="56" color="1,0,0"/>
    <vehicle id="up1_57" type="genericvehicle" route="up1" depart="57" color="1,0,0"/>
    <vehicle id="down2_58" type="genericvehicle" route="down2" depart="58" />
    <vehicle id="up2_59" type="genericvehicle" route="up2" depart="59" />
    <vehicle id="right_60" type="genericvehicle" route="right" depart="60" />
    <vehicle id="left_61" type="genericvehicle" route="left" depart="61" />
    <vehicle id="left_62" type="genericvehicle" route="left" depart="62" />
    <vehicle id="right_63" type="genericvehicle" route="right" depart="63" />
    <vehicle id="down1_64" type="genericvehicle" route="down1" depart="64" color="1,0,0"/>
    <vehicle id="up1_65" type="genericvehicle" route="up1" depart="65" color="1,0,0"/>
    <vehicle id="down2_66" type="genericvehicle" route="down2" depart="66" />
    <vehicle id="up2_67" type="genericvehicle" route="up2" depart="67" />
    <vehicle id="right_68" type="genericvehicle" route="right" depart="68" />
    <vehicle id="left_69" type="genericvehicle" route="left" depart="69" />
    <vehicle id="left_70" type="genericvehicle" route="left" depart="70" />
    <vehicle id="right_71" type="genericvehicle" route="right" depart="71" />
    <vehicle id="down1_72" type="genericvehicle" route="down1" depart="72" color="1,0,0"/>
    <vehicle id="up1_73" type="genericvehicle" route="up1" depart="73" color="1,0,0"/>
    <vehicle id="down2_74" type="genericvehicle" route="down2" depart="74" />
    <vehicle id="up2_75" type="genericvehicle" route="up2" depart="75" />
    <vehicle id="right_76" type="genericvehicle" route="right" depart="76" />
    <vehicle id="left_77" type="genericvehicle" route="left" depart="77" />
    <vehicle id="left_78" type="genericvehicle" route="left" depart="78" />
    <vehicle id="right_79" type="genericvehicle" route="right" depart="79" />
    <vehicle id="down1_80" type="genericvehicle" route="down1" depart="80" color="1,0,0"/>
    <vehicle id="up1_81" type="genericvehicle" route="up1" depart="81" color="1,0,0"/>
    <vehicle id="down2_82" type="genericvehicle" route="down2" depart="82" />
    <vehicle id="up2_83" type="genericvehicle" route="up2" depart="83" />
    <vehicle id="right_84" type="genericvehicle" route="right" depart="84" />
    <vehicle id="left_85" type="genericvehicle" route="left" depart="85" />
    <vehicle id="left_86" type="genericvehicle" route="left" depart="86" />
    <vehicle id="right_87" type="genericvehicle" route="right" depart="87" />
    <vehicle id="down1_88" type="genericvehicle" route="down1" depart="88" color="1,0,0"/>
    <vehicle id="up1_89" type="genericvehicle" route="up1" depart="89" color="1,0,0"/>
    <vehicle id="down2_90" type="genericvehicle" route="down2" depart="90" />
    <vehicle id="up2_91" type="genericvehicle" route="up2" depart="91" />
    <vehicle id="right_92" type="genericvehicle" route="right" depart="92" />
    <vehicle id="left_93" type="genericvehicle" route="left" depart="93" />
    <vehicle id="left_94" type="genericvehicle" route="left" depart="94" />
    <vehicle id="right_95" type="genericvehicle" route="right" depart="95" />
    <vehicle id="down1_96" type="genericvehicle" route="down1" depart="96" color="1,0,0"/>
    <vehicle id="up1_97" type="genericvehicle" route="up1" depart="97" color="1,0,0"/>
    <vehicle id="down2_98" type="genericvehicle" route="down2" depart="98" />
    <vehicle id="up2_99" type="genericvehicle" route="up2" depart="99" />
    <vehicle id="right_100" type="genericvehicle" route="right" depart="100" />
    <vehicle id="left_101" type="genericvehicle" route="left" depart="101" />
    <vehicle id="left_102" type="genericvehicle" route="left" depart="102" />
    <vehicle id="right_103" type="genericvehicle" route="right" depart="103" />
    <vehicle id="down1_104" type="genericvehicle" route="down1" depart="104" color="1,0,0"/>
    <vehicle id="up1_105" type="genericvehicle" route="up1" depart="105" color="1,0,0"/>
    <vehicle id="down2_106" type="genericvehicle" route="down2" depart="106" />
    <vehicle id="up2_107" type="genericvehicle" route="up2" depart="107" />
    <vehicle id="right_108" type="genericvehicle" route="right" depart="108" />
    <vehicle id="left_109" type="genericvehicle" route="left" depart="109" />
    <vehicle id="left_110" type="genericvehicle" route="left" depart="110" />
    <vehicle id="right_111" type="genericvehicle" route="right" depart="111" />
    <vehicle id="down1_112" type="genericvehicle" route="down1" depart="112" color="1,0,0"/>
    <vehicle id="up1_113" type="genericvehicle" route="up1" depart="113" color="1,0,0"/>
    <vehicle id="down2_114" type="genericvehicle" route="down2" depart="114" />
    <vehicle id="up2_115" type="genericvehicle" route="up2" depart="115" />
    <vehicle id="right_116" type="genericvehicle" route="right" depart="116" />
    <vehicle id="left_117" type="genericvehicle" route="left" depart="117" />
    <vehicle id="left_118" type="genericvehicle" route="left" depart="118" />
    <vehicle id="right_119" type="genericvehicle" route="right" depart="119" />
    <vehicle id="down1_120" type="genericvehicle" route="down1" depart="120" color="1,0,0"/>
    <vehicle id="up1_121" type="genericvehicle" route="up1" depart="121" color="1,0,0"/>
    <vehicle id="down2_122" type="genericvehicle" route="down2" depart="122" />
    <vehicle id="up2_123" type="genericvehicle" route="up2" depart="123" />
    <vehicle id="right_124" type="genericvehicle" route="right" depart="124" />
    <vehicle id="left_125" type="genericvehicle" route="left" depart="125" />
    <vehicle id="left_126" type="genericvehicle" route="left" depart="126" />
    <vehicle id="right_127" type="genericvehicle" route="right" depart="127" />
    <vehicle id="down1_128" type="genericvehicle" route="down1" depart="128" color="1,0,0"/>
    <vehicle id="up1_129" type="genericvehicle" route="up1" depart="129" color="1,0,0"/>
    <vehicle id="down2_130" type="genericvehicle" route="down2" depart="130" />
    <vehicle id="up2_131" type="genericvehicle" route="up2" depart="131" />
    <vehicle id="right_132" type="genericvehicle" route="right" depart="132" />
    <vehicle id="left_133" type="genericvehicle" route="left" depart="133" />
    <vehicle id="left_134" type="genericvehicle" route="left" depart="134" />
    <vehicle id="right_135" type="genericvehicle" route="right" depart="135" />
    <vehicle id="down1_136" type="genericvehicle" route="down1" depart="136" color="1,0,0"/>
    <vehicle id="up1_137" type="genericvehicle" route="up1" depart="137" color="1,0,0"/>
    <vehicle id="down2_138" type="genericvehicle" route="down2" depart="138" />
    <vehicle id="up2_139" type="genericvehicle" route="up2" depart="139" />
    <vehicle id="right_140" type="genericvehicle" route="right" depart="140" />
    <vehicle id="left_141" type="genericvehicle" route="left" depart="141" />
    <vehicle id="left_142" type="genericvehicle" route="left" depart="142" />
    <vehicle id="right_143" type="genericvehicle" route="right" depart="143" />
    <vehicle id="down1_144" type="genericvehicle" route="down1" depart="144" color="1,0,0"/>
    <vehicle id="up1_145" type="genericvehicle" route="up1" depart="145" color="1,0,0"/>
    <vehicle id="down2_146" type="genericvehicle" route="down2" depart="146" />
    <vehicle id="up2_147" type="genericvehicle" route="up2" depart="147" />
    <vehicle id="right_148" type="genericvehicle" route="right" depart="148" />
    <vehicle id="left_149" type="genericvehicle" route="left" depart="149" />
    <vehicle id="left_150" type="genericvehicle" route="left" depart="150" />
    <vehicle id="right_151" type="genericvehicle" route="right" depart="151" />
    <vehicle id="down1_152" type="genericvehicle" route="down1" depart="152" color="1,0,0"/>
    <vehicle id="up1_153" type="genericvehicle" route="up1" depart="153" color="1,0,0"/>
    <vehicle id="down2_154" type="genericvehicle" route="down2" depart="154" />
    <vehicle id="up2_155" type="genericvehicle" route="up2" depart="155" />
    <vehicle id="right_156" type="genericvehicle" route="right" depart="156" />
    <vehicle id="left_157" type="genericvehicle" route="left" depart="157" />
    <vehicle id="left_158" type="genericvehicle" route="left" depart="158" />
    <vehicle id="right_159" type="genericvehicle" route="right" depart="159" />
    <vehicle id="down1_160" type="genericvehicle" route="down1" depart="160" color="1,0,0"/>
    <vehicle id="up1_161" type="genericvehicle" route="up1" depart="161" color="1,0,0"/>
    <vehicle id="down2_162" type="genericvehicle" route="down2" depart="162" />
    <vehicle id="up2_163" type="genericvehicle" route="up2" depart="163" />
    <vehicle id="right_164" type="genericvehicle" route="right" depart="164" />
    <vehicle id="left_165" type="genericvehicle" route="left" depart="165" />
    <vehicle id="left_166" type="genericvehicle" route="left" depart="166" />
    <vehicle id="right_167" type="genericvehicle" route="right" depart="167" />
    <vehicle id="down1_168" type="genericvehicle" route="down1" depart="168" color="1,0,0"/>
    <vehicle id="up1_169" type="genericvehicle" route="up1" depart="169" color="1,0,0"/>
    <vehicle id="down2_170" type="genericvehicle" route="down2" depart="170" />
    <vehicle id="up2_171" type="genericvehicle" route="up2" depart="171" />
    <vehicle id="right_172" type="genericvehicle" route="right" depart="172" />
    <vehicle id="left_173" type="genericvehicle" route="left" depart="173" />
    <vehicle id="left_174" type="genericvehicle" route="left" depart="174" />
    <vehicle id="right_175" type="genericvehicle" route="right" depart="175" />
    <vehicle id="down1_176" type="genericvehicle" route="down1" depart="176" color="1,0,0"/>
    <vehicle id="up1_177" type="genericvehicle" route="up1" depart="177" color="1,0,0"/>
    <vehicle id="down2_178" type="genericvehicle" route="down2" depart="178" />
    <vehicle id="up2_179" type="genericvehicle" route="up2" depart="179" />
    <vehicle id="right_180" type="genericvehicle" route="right" depart="180" />
    <vehicle id="left_181" type="genericvehicle" route="left" depart="181" />
    <vehicle id="left_182" type="genericvehicle" route="left" depart="182" />
    <vehicle id="right_183" type="genericvehicle" route="right" depart="183" />
    <vehicle id="down1_184" type="genericvehicle" route="down1" depart="184" color="1,0,0"/>
    <vehicle id="up1_185" type="genericvehicle" route="up1" depart="185" color="1,0,0"/>
    <vehicle id="down2_186" type="genericvehicle" route="down2" depart="186" />
    <vehicle id="up2_187" type="genericvehicle" route="up2" depart="187" />
    <vehicle id="right_188" type="genericvehicle" route="right" depart="188" />
    <vehicle id="left_189" type="genericvehicle" route="left" depart="189" />
    <vehicle id="left_190" type="genericvehicle" route="left" depart="190" />
    <vehicle id="right_191" type="genericvehicle" route="right" depart="191" />
    <vehicle id="down1_192" type="genericvehicle" route="down1" depart="192" color="1,0,0"/>
    <vehicle id="up1_193" type="genericvehicle" route="up1" depart="193" color="1,0,0"/>
    <vehicle id="down2_194" type="genericvehicle" route="down2" depart="194" />
    <vehicle id="up2_195" type="genericvehicle" route="up2" depart="195" />
    <vehicle id="right_196" type="genericvehicle" route="right" depart="196" />
    <vehicle id="left_197" type="genericvehicle" route="left" depart="197" />
    <vehicle id="left_198" type="genericvehicle" route="left" depart="198" />
    <vehicle id="right_199" type="genericvehicle" route="right" depart="199" />
    <vehicle id="down1_200" type="genericvehicle" route="down1" depart="200" color="1,0,0"/>
    <vehicle id="up1_201" type="genericvehicle" route="up1" depart="201" color="1,0,0"/>
    <vehicle id="down2_202" type="genericvehicle" route="down2" depart="202" />
    <vehicle id="up2_203" type="genericvehicle" route="up2" depart="203" />
    <vehicle id="right_204" type="genericvehicle" route="right" depart="204" />
    <vehicle id="left_205" type="genericvehicle" route="left" depart="205" />
    <vehicle id="left_206" type="genericvehicle" route="left" depart="206" />
    <vehicle id="right_207" type="genericvehicle" route="right" depart="207" />
    <vehicle id="down1_208" type="genericvehicle" route="down1" depart="208" color="1,0,0"/>
    <vehicle id="up1_209" type="genericvehicle" route="up1" depart="209" color="1,0,0"/>
    <vehicle id="down2_210" type="genericvehicle" route="down2" depart="210" />
    <vehicle id="up2_211" type="genericvehicle" route="up2" depart="211" />
    <vehicle id="right_212" type="genericvehicle" route="right" depart="212" />
    <vehicle id="left_213" type="genericvehicle" route="left" depart="213" />
    <vehicle id="left_214" type="genericvehicle" route="left" depart="214" />
    <vehicle id="right_215" type="genericvehicle" route="right" depart="215" />
    <vehicle id="down1_216" type="genericvehicle" route="down1" depart="216" color="1,0,0"/>
    <vehicle id="up1_217" type="genericvehicle" route="up1" depart="217" color="1,0,0"/>
    <vehicle id="down2_218" type="genericvehicle" route="down2" depart="218" />
    <vehicle id="up2_219" type="genericvehicle" route="up2" depart="219" />
    <vehicle id="right_220" type="genericvehicle" route="right" depart="220" />
    <vehicle id="left_221" type="genericvehicle" route="left" depart="221" />
    <vehicle id="left_222" type="genericvehicle" route="left" depart="222" />
    <vehicle id="right_223" type="genericvehicle" route="right" depart="223" />
    <vehicle id="down1_224" type="genericvehicle" route="down1" depart="224" color="1,0,0"/>
    <vehicle id="up1_225" type="genericvehicle" route="up1" depart="225" color="1,0,0"/>
    <vehicle id="down2_226" type="genericvehicle" route="down2" depart="226" />
    <vehicle id="up2_227" type="genericvehicle" route="up2" depart="227" />
    <vehicle id="right_228" type="genericvehicle" route="right" depart="228" />
    <vehicle id="left_229" type="genericvehicle" route="left" depart="229" />
    <vehicle id="left_230" type="genericvehicle" route="left" depart="230" />
    <vehicle id="right_231" type="genericvehicle" route="right" depart="231" />
    <vehicle id="down1_232" type="genericvehicle" route="down1" depart="232" color="1,0,0"/>
    <vehicle id="up1_233" type="genericvehicle" route="up1" depart="233" color="1,0,0"/>
    <vehicle id="down2_234" type="genericvehicle" route="down2" depart="234" />
    <vehicle id="up2_235" type="genericvehicle" route="up2" depart="235" />
    <vehicle id="right_236" type="genericvehicle" route="right" depart="236" />
    <vehicle id="left_237" type="genericvehicle" route="left" depart="237" />
    <vehicle id="left_238" type="genericvehicle" route="left" depart="238" />
    <vehicle id="right_239" type="genericvehicle" route="right" depart="239" />
    <vehicle id="down1_240" type="genericvehicle" route="down1" depart="240" color="1,0,0"/>
    <vehicle id="up1_241" type="genericvehicle" route="up1" depart="241" color="1,0,0"/>
    <vehicle id="down2_242" type="genericvehicle" route="down2" depart="242" />
    <vehicle id="up2_243" type="genericvehicle" route="up2" depart="243" />
    <vehicle id="right_244" type="genericvehicle" route="right" depart="244" />
    <vehicle id="left_245" type="genericvehicle" route="left" depart="245" />
    <vehicle id="left_246" type="genericvehicle" route="left" depart="246" />
    <vehicle id="right_247" type="genericvehicle" route="right" depart="247" />
    <vehicle id="down1_248" type="genericvehicle" route="down1" depart="248" color="1,0,0"/>
    <vehicle id="up1_249" type="genericvehicle" route="up1" depart="249" color="1,0,0"/>
    <vehicle id="down2_250" type="genericvehicle" route="down2" depart="250" />
    <vehicle id="up2_251" type="genericvehicle" route="up2" depart="251" />
    <vehicle id="right_252" type="genericvehicle" route="right" depart="252" />
    <vehicle id="left_253" type="genericvehicle" route="left" depart="253" />
    <vehicle id="left_254" type="genericvehicle" route="left" depart="254" />
    <vehicle id="right_255" type="genericvehicle" route="right" depart="255" />
    <vehicle id="down1_256" type="genericvehicle" route="down1" depart="256" color="1,0,0"/>
    <vehicle id="up1_257" type="genericvehicle" route="up1" depart="257" color="1,0,0"/>
    <vehicle id="down2_258" type="genericvehicle" route="down2" depart="258" />
    <vehicle id="up2_259" type="genericvehicle" route="up2" depart="259" />
    <vehicle id="right_260" type="genericvehicle" route="right" depart="260" />
    <vehicle id="left_261" type="genericvehicle" route="left" depart="261" />
    <vehicle id="left_262" type="genericvehicle" route="left" depart="262" />
    <vehicle id="right_263" type="genericvehicle" route="right" depart="263" />
    <vehicle id="down1_264" type="genericvehicle" route="down1" depart="264" color="1,0,0"/>
    <vehicle id="up1_265" type="genericvehicle" route="up1" depart="265" color="1,0,0"/>
    <vehicle id="down2_266" type="genericvehicle" route="down2" depart="266" />
    <vehicle id="up2_267" type="genericvehicle" route="up2" depart="267" />
    <vehicle id="right_268" type="genericvehicle" route="right" depart="268" />
    <vehicle id="left_269" type="genericvehicle" route="left" depart="269" />
    <vehicle id="left_270" type="genericvehicle" route="left" depart="270" />
    <vehicle id="right_271" type="genericvehicle" route="right" depart="271" />
    <vehicle id="down1_272" type="genericvehicle" route="down1" depart="272" color="1,0,0"/>
    <vehicle id="up1_273" type="genericvehicle" route="up1" depart="273" color="1,0,0"/>
    <vehicle id="down2_274" type="genericvehicle" route="down2" depart="274" />
    <vehicle id="up2_275" type="genericvehicle" route="up2" depart="275" />
    <vehicle id="right_276" type="genericvehicle" route="right" depart="276" />
    <vehicle id="left_277" type="genericvehicle" route="left" depart="277" />
    <vehicle id="left_278" type="genericvehicle" route="left" depart="278" />
    <vehicle id="right_279" type="genericvehicle" route="right" depart="279" />
    <vehicle id="down1_280" type="genericvehicle" route="down1" depart="280" color="1,0,0"/>
    <vehicle id="up1_281" type="genericvehicle" route="up1" depart="281" color="1,0,0"/>
    <vehicle id="down2_282" type="genericvehicle" route="down2" depart="282" />
    <vehicle id="up2_283" type="genericvehicle" route="up2" depart="283" />
    <vehicle id="right_284" type="genericvehicle" route="right" depart="284" />
    <vehicle id="left_285" type="genericvehicle" route="left" depart="285" />
    <vehicle id="left_286" type="genericvehicle" route="left" depart="286" />
    <vehicle id="right_287" type="genericvehicle" route="right" depart="287" />
    <vehicle id="down1_288" type="genericvehicle" route="down1" depart="288" color="1,0,0"/>
    <vehicle id="up1_289" type="genericvehicle" route="up1" depart="289" color="1,0,0"/>
    <vehicle id="down2_290" type="genericvehicle" route="down2" depart="290" />
    <vehicle id="up2_291" type="genericvehicle" route="up2" depart="291" />
    <vehicle id="right_292" type="genericvehicle" route="right" depart="292" />
    <vehicle id="left_293" type="genericvehicle" route="left" depart="293" />
    <vehicle id="left_294" type="genericvehicle" route="left" depart="294" />
    <vehicle id="right_295" type="genericvehicle" route="right" depart="295" />
    <vehicle id="down1_296" type="genericvehicle" route="down1" depart="296" color="1,0,0"/>
    <vehicle id="up1_297" type="genericvehicle" route="up1" depart="297" color="1,0,0"/>
    <vehicle id="down2_298" type="genericvehicle" route="down2" depart="298" />
    <vehicle id="up2_299" type="genericvehicle" route="up2" depart="299" />
    <vehicle id="right_300" type="genericvehicle" route="right" depart="300" />
    <vehicle id="left_301" type="genericvehicle" route="left" depart="301" />
    <vehicle id="left_302" type="genericvehicle" route="left" depart="302" />
    <vehicle id="right_303" type="genericvehicle" route="right" depart="303" />
    <vehicle id="down1_304" type="genericvehicle" route="down1" depart="304" color="1,0,0"/>
    <vehicle id="up1_305" type="genericvehicle" route="up1" depart="305" color="1,0,0"/>
    <vehicle id="down2_306" type="genericvehicle" route="down2" depart="306" />
    <vehicle id="up2_307" type="genericvehicle" route="up2" depart="307" />
    <vehicle id="right_308" type="genericvehicle" route="right" depart="308" />
    <vehicle id="left_309" type="genericvehicle" route="left" depart="309" />
    <vehicle id="left_310" type="genericvehicle" route="left" depart="310" />
    <vehicle id="right_311" type="genericvehicle" route="right" depart="311" />
    <vehicle id="down1_312" type="genericvehicle" route="down1" depart="312" color="1,0,0"/>
    <vehicle id="up1_313" type="genericvehicle" route="up1" depart="313" color="1,0,0"/>
    <vehicle id="down2_314" type="genericvehicle" route="down2" depart="314" />
    <vehicle id="up2_315" type="genericvehicle" route="up2" depart="315" />
    <vehicle id="right_316" type="genericvehicle" route="right" depart="316" />
    <vehicle id="left_317" type="genericvehicle" route="left" depart="317" />
    <vehicle id="left_318" type="genericvehicle" route="left" depart="318" />
    <vehicle id="right_319" type="genericvehicle" route="right" depart="319" />
    <vehicle id="down1_320" type="genericvehicle" route="down1" depart="320" color="1,0,0"/>
    <vehicle id="up1_321" type="genericvehicle" route="up1" depart="321" color="1,0,0"/>
    <vehicle id="down2_322" type="genericvehicle" route="down2" depart="322" />
    <vehicle id="up2_323" type="genericvehicle" route="up2" depart="323" />
    <vehicle id="right_324" type="genericvehicle" route="right" depart="324" />
    <vehicle id="left_325" type="genericvehicle" route="left" depart="325" />
    <vehicle id="left_326" type="genericvehicle" route="left" depart="326" />
    <vehicle id="right_327" type="genericvehicle" route="right" depart="327" />
    <vehicle id="down1_328" type="genericvehicle" route="down1" depart="328" color="1,0,0"/>
    <vehicle id="up1_329" type="genericvehicle" route="up1" depart="329" color="1,0,0"/>
    <vehicle id="down2_330" type="genericvehicle" route="down2" depart="330" />
    <vehicle id="up2_331" type="genericvehicle" route="up2" depart="331" />
    <vehicle id="right_332" type="genericvehicle" route="right" depart="332" />
    <vehicle id="left_333" type="genericvehicle" route="left" depart="333" />
    <vehicle id="left_334" type="genericvehicle" route="left" depart="334" />
    <vehicle id="right_335" type="genericvehicle" route="right" depart="335" />
    <vehicle id="down1_336" type="genericvehicle" route="down1" depart="336" color="1,0,0"/>
    <vehicle id="up1_337" type="genericvehicle" route="up1" depart="337" color="1,0,0"/>
    <vehicle id="down2_338" type="genericvehicle" route="down2" depart="338" />
    <vehicle id="up2_339" type="genericvehicle" route="up2" depart="339" />
    <vehicle id="right_340" type="genericvehicle" route="right" depart="340" />
    <vehicle id="left_341" type="genericvehicle" route="left" depart="341" />
    <vehicle id="left_342" type="genericvehicle" route="left" depart="342" />
    <vehicle id="right_343" type="genericvehicle" route="right" depart="343" />
    <vehicle id="down1_344" type="genericvehicle" route="down1" depart="344" color="1,0,0"/>
    <vehicle id="up1_345" type="genericvehicle" route="up1" depart="345" color="1,0,0"/>
    <vehicle id="down2_346" type="genericvehicle" route="down2" depart="346" />
    <vehicle id="up2_347" type="genericvehicle" route="up2" depart="347" />
    <vehicle id="right_348" type="genericvehicle" route="right" depart="348" />
    <vehicle id="left_349" type="genericvehicle" route="left" depart="349" />
    <vehicle id="left_350" type="genericvehicle" route="left" depart="350" />
    <vehicle id="right_351" type="genericvehicle" route="right" depart="351" />
    <vehicle id="down1_352" type="genericvehicle" route="down1" depart="352" color="1,0,0"/>
    <vehicle id="up1_353" type="genericvehicle" route="up1" depart="353" color="1,0,0"/>
    <vehicle id="down2_354" type="genericvehicle" route="down2" depart="354" />
    <vehicle id="up2_355" type="genericvehicle" route="up2" depart="355" />
    <vehicle id="right_356" type="genericvehicle" route="right" depart="356" />
    <vehicle id="left_357" type="genericvehicle" route="left" depart="357" />
    <vehicle id="left_358" type="genericvehicle" route="left" depart="358" />
    <vehicle id="right_359" type="genericvehicle" route="right" depart="359" />
    <vehicle id="down1_360" type="genericvehicle" route="down1" depart="360" color="1,0,0"/>
    <vehicle id="up1_361" type="genericvehicle" route="up1" depart="361" color="1,0,0"/>